data_GaAs_216_conv
_chemical_formula_sum Ga2As
_cell_length_a                    8.132
_cell_length_b                    8.132
_cell_length_c                    8.132
_cell_angle_alpha                 90.00
_cell_angle_beta                  90.00
_cell_angle_gamma                 90.00

loop_ _atom_site_label _atom_site_fract_x _atom_site_fract_y _atom_site_fract_z
Ga .0 .0 .0
Ga 0.0 1.5 0.5
Ga 0.5 0.0 0.5
Ga 0.5 0.5 0.0
As .75 0.75 0.75
As 0.25 0.25 0.75
As 0.25 0.75 0.25
As 0.75 0.25 0.25
