data_NaCl_225_conv
_symmetry_Int_Tables_number 225
_chemical_formula_sum NaCl
_cell_length_a                    5.64
_cell_length_b                    5.64
_cell_length_c                    5.64
_cell_angle_alpha                 90.00
_cell_angle_beta                  90.00
_cell_angle_gamma                 90.00

loop_ _atom_site_label _atom_site_fract_x _atom_site_fract_y _atom_site_fract_z
Na1 .0 .0 .0
Cl2 0.5 0.0 0.0
