data_IT026_DOUBLE_CL2_publ

_chemical_name_systematic        ZIF-8_Cl
_chemical_name_common            'ZIF-8, 2-chloroimidazolium'
_chemical_formula_moiety         ?
_chemical_formula_structural     ?
_chemical_formula_analytical     ?
_chemical_melting_point          ?
_chemical_compound_source        ? # for minerals and
# natural products
_symmetry_space_group_name_Hall  ?

_exptl_crystal_F_000             ?
_exptl_crystal_density_diffrn    ?
_exptl_crystal_density_meas      ?
_exptl_crystal_density_method    ?

_cell_measurement_temperature    ?

_cell_special_details            
; ?
;

_geom_special_details            ?

# The following item identifies the program(s) used (if appropriate).
_computing_structure_solution    ?

#==============================================================================

# 8. Phase information from GSAS

_pd_phase_name                   'ZIF-8, 2-chloroimidazolium'
_cell_length_a                   17.03715(6)
_cell_length_b                   17.03715
_cell_length_c                   17.03715
_cell_angle_alpha                90.0
_cell_angle_beta                 90.0
_cell_angle_gamma                90.0
_cell_volume                     4945.28(5)
_symmetry_cell_setting           cubic
_symmetry_space_group_name_H-M   'I -4 3 m'
loop_
_symmetry_equiv_pos_site_id
_symmetry_equiv_pos_as_xyz
1 +x,+y,+z
2 +z,+x,+y
3 +y,+z,+x
4 +y,-x,-z
5 -z,+y,-x
6 -x,-z,+y
7 -x,-y,+z
8 -z,+x,-y
9 -y,-z,+x
10 +x,-y,-z
11 +z,-x,-y
12 -y,+z,-x
13 -y,+x,-z
14 -z,-y,+x
15 +x,-z,-y
16 +x,+z,+y
17 +y,+x,+z
18 +z,+y,+x
19 +y,-z,-x
20 -y,-x,+z
21 +z,-y,-x
22 -x,+z,-y
23 -x,+y,-z
24 -z,-x,+y
101 +x+1/2,+y+1/2,+z+1/2
102 +z+1/2,+x+1/2,+y+1/2
103 +y+1/2,+z+1/2,+x+1/2
104 +y+1/2,-x+1/2,-z+1/2
105 -z+1/2,+y+1/2,-x+1/2
106 -x+1/2,-z+1/2,+y+1/2
107 -x+1/2,-y+1/2,+z+1/2
108 -z+1/2,+x+1/2,-y+1/2
109 -y+1/2,-z+1/2,+x+1/2
110 +x+1/2,-y+1/2,-z+1/2
111 +z+1/2,-x+1/2,-y+1/2
112 -y+1/2,+z+1/2,-x+1/2
113 -y+1/2,+x+1/2,-z+1/2
114 -z+1/2,-y+1/2,+x+1/2
115 +x+1/2,-z+1/2,-y+1/2
116 +x+1/2,+z+1/2,+y+1/2
117 +y+1/2,+x+1/2,+z+1/2
118 +z+1/2,+y+1/2,+x+1/2
119 +y+1/2,-z+1/2,-x+1/2
120 -y+1/2,-x+1/2,+z+1/2
121 +z+1/2,-y+1/2,-x+1/2
122 -x+1/2,+z+1/2,-y+1/2
123 -x+1/2,+y+1/2,-z+1/2
124 -z+1/2,-x+1/2,+y+1/2

# ATOMIC COORDINATES AND DISPLACEMENT PARAMETERS


loop_
_atom_site_type_symbol
_atom_site_label
_atom_site_fract_x
_atom_site_fract_y
_atom_site_fract_z
_atom_site_occupancy
_atom_site_thermal_displace_type
_atom_site_U_iso_or_equiv
_atom_site_symmetry_multiplicity
Zn Zn1 0.25 0.5 0.0 1.0 Uiso 0.0451(4) 12
C C1 0.12409(23) 0.4907(5) 0.12409(23) 0.498(5) Uiso 0.0447(7) 24
C C2 0.18510(30) 0.59922(29) 0.13030(26) 0.498(5) Uiso 0.0447(7) 48
Cl Cl 0.09667(20) 0.40019(34) 0.09667(20) 0.498(5) Uiso 0.0447(7) 24
N N1 0.18592(18) 0.52934(21) 0.08959(18) 1.0 Uiso 0.0447(7) 48
H H1 0.2205(7) 0.6400(8) 0.1213(7) 0.498(5) Uiso 0.0447(7) 48
Cl Cl' 0.07672(21) 0.42006(33) 0.07671(21) 0.502(5) Uiso 0.0447(7) 24
C C1' 0.12069(26) 0.4947(4) 0.12069(26) 0.502(5) Uiso 0.0447(7) 24
C C2' 0.19917(31) 0.58643(29) 0.14474(25) 0.502(5) Uiso 0.0447(7) 48
H H1' 0.2408(7) 0.6218(6) 0.1419(9) 0.502(5) Uiso 0.0447(7) 48

# If you change Z, be sure to change all 3 of the following
_chemical_formula_sum            'C6.00 H4.00 Cl2.00 N4 Zn'
_chemical_formula_weight         268.41
_cell_formula_units_Z            12

# MOLECULAR GEOMETRY

loop_
_geom_bond_atom_site_label_1
_geom_bond_atom_site_label_2
_geom_bond_distance
_geom_bond_site_symmetry_1
_geom_bond_site_symmetry_2
_geom_bond_publ_flag
Zn1 N1 1.9421(29) . 1_555 N
Zn1 N1 1.9421(29) . 10_565 N
Zn1 N1 1.9421(29) . 106_554 N
Zn1 N1 1.9421(29) . 122_555 N
C1 C2 2.124(9) . 1_555 N
C1 C2 2.124(9) . 18_555 N
C1 Cl 1.678(9) . 1_555 N
C1 N1 1.374(4) . 1_555 N
C1 N1 1.374(4) . 18_555 N
C1 Cl' 1.659(10) . 1_555 N
C1 C1' 0.106(8) . 1_555 N
C1 C2' 2.102(9) . 1_555 N
C1 C2' 2.102(9) . 18_555 N
C2 C1 2.124(9) . 1_555 N
C2 C2 1.321(10) . 18_555 N
C2 N1 1.378(5) . 1_555 N
C2 H1 0.933(12) . 1_555 N
C2 H1 2.007(15) . 18_555 N
C2 C1' 2.099(9) . 1_555 N
C2 C2' 0.407(7) . 1_555 N
C2 C2' 1.377(6) . 18_555 N
C2 H1' 1.043(13) . 1_555 N
C2 H1' 2.058(14) . 18_555 N
Cl C1 1.678(9) . 1_555 N
Cl N1 2.677(6) . 1_555 N
Cl N1 2.677(6) . 18_555 N
Cl Cl' 0.588(6) . 1_555 N
Cl C1' 1.711(10) . 1_555 N
N1 Zn1 1.9421(29) . 1_555 N
N1 C1 1.374(4) . 1_555 N
N1 C2 1.378(5) . 1_555 N
N1 Cl 2.677(6) . 1_555 N
N1 H1 2.048(14) . 1_555 N
N1 Cl' 2.641(6) . 1_555 N
N1 C1' 1.365(4) . 1_555 N
N1 C2' 1.371(5) . 1_555 N
N1 H1' 2.038(14) . 1_555 N
H1 C2 0.933(12) . 1_555 N
H1 C2 2.007(15) . 18_555 N
H1 N1 2.048(14) . 1_555 N
H1 C2' 1.060(14) . 1_555 N
H1 C2' 2.064(14) . 18_555 N
H1 H1' 0.582(10) . 1_555 N
Cl' C1 1.659(10) . 1_555 N
Cl' Cl 0.588(6) . 1_555 N
Cl' N1 2.641(6) . 1_555 N
Cl' N1 2.641(6) . 18_555 N
Cl' C1' 1.655(8) . 1_555 N
C1' C1 0.106(8) . 1_555 N
C1' C2 2.099(9) . 1_555 N
C1' C2 2.099(9) . 18_555 N
C1' Cl 1.711(10) . 1_555 N
C1' N1 1.365(4) . 1_555 N
C1' N1 1.365(4) . 18_555 N
C1' Cl' 1.655(8) . 1_555 N
C1' C2' 2.097(9) . 1_555 N
C1' C2' 2.097(9) . 18_555 N
C2' C1 2.102(9) . 1_555 N
C2' C2 0.407(7) . 1_555 N
C2' C2 1.377(6) . 18_555 N
C2' N1 1.371(5) . 1_555 N
C2' H1 1.060(14) . 1_555 N
C2' H1 2.064(14) . 18_555 N
C2' C1' 2.097(9) . 1_555 N
C2' C2' 1.311(10) . 18_555 N
C2' H1' 0.933(12) . 1_555 N
C2' H1' 1.999(16) . 18_555 N
H1' C2 1.043(13) . 1_555 N
H1' C2 2.058(14) . 18_555 N
H1' N1 2.038(14) . 1_555 N
H1' H1 0.582(10) . 1_555 N
H1' C2' 0.933(12) . 1_555 N
H1' C2' 1.999(16) . 18_555 N

loop_
_geom_angle_atom_site_label_1
_geom_angle_atom_site_label_2
_geom_angle_atom_site_label_3
_geom_angle
_geom_angle_site_symmetry_1
_geom_angle_site_symmetry_2
_geom_angle_site_symmetry_3
_geom_angle_publ_flag
N1 Zn1 N1 111.59(18) 1_555 . 10_565 N
N1 Zn1 N1 108.42(9) 1_555 . 106_554 N
N1 Zn1 N1 108.42(9) 1_555 . 122_555 N
N1 Zn1 N1 108.42(9) 10_565 . 106_554 N
N1 Zn1 N1 108.42(9) 10_565 . 122_555 N
N1 Zn1 N1 111.59(18) 106_554 . 122_555 N
Cl C1 N1 122.32(30) 1_555 . 1_555 N
Cl C1 N1 122.32(30) 1_555 . 18_555 N
Cl C1 Cl' 20.29(24) 1_555 . 1_555 N
Cl C1 C1' 106(6) 1_555 . 1_555 N
N1 C1 N1 115.2(6) 1_555 . 18_555 N
N1 C1 Cl' 120.82(28) 1_555 . 1_555 N
N1 C1 C1' 83.1(31) 1_555 . 1_555 N
N1 C1 Cl' 120.83(28) 18_555 . 1_555 N
N1 C1 C1' 83.1(31) 18_555 . 1_555 N
Cl' C1 C1' 86(6) 1_555 . 1_555 N
C2 C2 N1 111.28(26) 18_555 . 1_555 N
C2 C2 H1 125.0(10) 18_555 . 1_555 N
C2 C2 C2' 89.4(11) 18_555 . 1_555 N
C2 C2 C2' 17.18(28) 18_555 . 18_555 N
C2 C2 H1' 120.6(10) 18_555 . 1_555 N
N1 C2 H1 123.7(10) 1_555 . 1_555 N
N1 C2 C2' 80.5(10) 1_555 . 1_555 N
N1 C2 C2' 107.3(5) 1_555 . 18_555 N
N1 C2 H1' 113.9(9) 1_555 . 1_555 N
H1 C2 C2' 96.7(14) 1_555 . 1_555 N
H1 C2 C2' 125.5(10) 1_555 . 18_555 N
H1 C2 H1' 33.6(6) 1_555 . 1_555 N
C2' C2 C2' 72.2(11) 1_555 . 18_555 N
C2' C2 H1' 63.1(12) 1_555 . 1_555 N
C2' C2 H1' 110.5(10) 18_555 . 1_555 N
C1 Cl Cl' 78.0(10) 1_555 . 1_555 N
C1 Cl C1' 3.41(28) 1_555 . 1_555 N
Cl' Cl C1' 74.6(10) 1_555 . 1_555 N
Zn1 N1 C1 130.08(31) 1_555 . 1_555 N
Zn1 N1 C2 128.58(31) 1_555 . 1_555 N
Zn1 N1 C1' 130.63(31) 1_555 . 1_555 N
Zn1 N1 C2' 128.95(30) 1_555 . 1_555 N
C1 N1 C2 101.0(4) 1_555 . 1_555 N
C1 N1 C1' 4.42(34) 1_555 . 1_555 N
C1 N1 C2' 100.0(4) 1_555 . 1_555 N
C2 N1 C1' 99.8(4) 1_555 . 1_555 N
C2 N1 C2' 17.02(28) 1_555 . 1_555 N
C1' N1 C2' 100.1(4) 1_555 . 1_555 N
C2 H1 C2' 22.4(5) 1_555 . 1_555 N
C2 H1 H1' 83.7(19) 1_555 . 1_555 N
C2' H1 H1' 61.3(16) 1_555 . 1_555 N
C1 Cl' Cl 81.7(10) 1_555 . 1_555 N
C1 Cl' C1' 3.66(29) 1_555 . 1_555 N
Cl Cl' C1' 85.3(11) 1_555 . 1_555 N
C1 C1' Cl 70(6) 1_555 . 1_555 N
C1 C1' N1 92.5(31) 1_555 . 1_555 N
C1 C1' N1 92.5(31) 1_555 . 18_555 N
C1 C1' Cl' 90(6) 1_555 . 1_555 N
Cl C1' N1 120.60(29) 1_555 . 1_555 N
Cl C1' N1 120.60(29) 1_555 . 18_555 N
Cl C1' Cl' 20.04(23) 1_555 . 1_555 N
N1 C1' N1 116.4(6) 1_555 . 18_555 N
N1 C1' Cl' 121.67(30) 1_555 . 1_555 N
N1 C1' Cl' 121.68(30) 18_555 . 1_555 N
C2 C2' C2 73.5(12) 1_555 . 18_555 N
C2 C2' N1 82.4(10) 1_555 . 1_555 N
C2 C2' H1 60.9(12) 1_555 . 1_555 N
C2 C2' C2' 90.6(11) 1_555 . 18_555 N
C2 C2' H1' 94.0(14) 1_555 . 1_555 N
C2 C2' N1 108.3(5) 18_555 . 1_555 N
C2 C2' H1 110.1(9) 18_555 . 1_555 N
C2 C2' C2' 17.18(28) 18_555 . 18_555 N
C2 C2' H1' 124.9(10) 18_555 . 1_555 N
N1 C2' H1 114.1(9) 1_555 . 1_555 N
N1 C2' C2' 111.60(26) 1_555 . 18_555 N
N1 C2' H1' 123.3(10) 1_555 . 1_555 N
H1 C2' C2' 120.6(9) 1_555 . 18_555 N
H1 C2' H1' 33.2(6) 1_555 . 1_555 N
C2' C2' H1' 125.1(10) 18_555 . 1_555 N
C2 H1' H1 62.7(16) 1_555 . 1_555 N
C2 H1' C2' 22.9(5) 1_555 . 1_555 N
H1 H1' C2' 85.6(19) 1_555 . 1_555 N

